Circuit: * Z:\home\frohro\Projects\WWU-VNA\LTSpice-Simulations\VNA201 8.asc

Error on line 2 : s1 n005 n008 n007 0 mysw sw
	 Unknown parameter "sw"
Error on line 3 : s2 n006 n011 n007 0 mysw sw
	 Unknown parameter "sw"
Direct Newton iteration for .op point succeeded.

Date: Mon Apr 16 15:18:24 2018
Total elapsed time: 2.747 seconds.

tnom = 27
temp = 27
method = modified trap
totiter = 725068
traniter = 725065
tranpoints = 344535
accept = 220986
rejected = 123549
matrix size = 17
fillins = 0
solver = Normal
Matrix Compiler1: 678 bytes object code size  1.6/1.1/[1.1]
Matrix Compiler2: 1.10 KB object code size  1.0/1.2/[1.0]

